▮ Part 1.

Paragraph 1.
new line.

Paragraph 2.

▮ Part 2.

hoge hoge.


▮ Part 2.

hoge hoge.



▮ Part 2.

hoge hoge.
